LTspice 24.1.10 for Windows
Circuit: C:\Nerd Projects\ChuaEncrypt\Simulations\LTSpice\Chua.net
Start Time: Wed Feb  4 21:10:26 2026
solver = Normal
Maximum thread count: 20
tnom = 27
temp = 27
method = trap
Direct Newton iteration failed to find .op point.  (Use ".option noopiter" to skip.)
Starting Gmin stepping
Gmin = 10
Gmin = 1.07374
Gmin = 0.115292
Gmin = 0.0123794
Gmin = 0.00132923
Gmin = 0.000142725
Gmin = 1.5325e-05
Gmin = 1.6455e-06
Gmin = 1.76685e-07
Gmin = 1.89714e-08
Gmin = 2.03704e-09
Gmin = 2.18725e-10
Gmin = 2.34854e-11
Gmin = 2.52173e-12
Gmin = 2.70769e-13
Gmin = 0
Gmin stepping succeeded in finding the operating point.

Changing Tseed to 1e-08
Changing Tseed to 1e-10
Changing Tseed to 1e-07
Changing Tseed to 1e-11
Changing Tseed to 1e-06
Changing Tseed to 1e-12
.step x=100

Simulation stopped by user.
Total elapsed time: 1.846 seconds.

Files loaded:
C:\Nerd Projects\ChuaEncrypt\Simulations\LTSpice\Chua.net
C:\Users\Justin Nguyen\AppData\Local\LTspice\lib\cmp\standard.dio
C:\Users\Justin Nguyen\AppData\Local\LTspice\lib\sub\ADI.lib
C:\Users\Justin Nguyen\AppData\Local\LTspice\lib\sub\ADTL084.lib

